5n2d._steric_free_235_
  PyMOL2.5          3D                             0

 39 42  0  0  0  0  0  0  0  0999 V2000
   21.2597   36.3194   25.7973 O   0  0  0  0  0  0  0  0  0  0  0  0
   22.4722   36.1228   25.8268 C   0  0  0  0  0  0  0  0  0  0  0  0
   23.4053   37.2291   26.2902 C   0  0  0  0  0  0  0  0  0  0  0  0
   21.8540   34.2318   23.2485 C   0  0  0  0  0  0  0  0  0  0  0  0
   17.3538   37.3444   21.8841 C   0  0  0  0  0  0  0  0  0  0  0  0
   21.5106   36.1399   21.5191 C   0  0  0  0  0  0  0  0  0  0  0  0
   16.0268   37.7411   21.8738 O   0  0  0  0  0  0  0  0  0  0  0  0
   20.0393   36.5204   21.7101 C   0  0  0  0  0  0  0  0  0  0  0  0
   22.3379   33.9171   24.6938 C   0  0  0  0  0  0  0  0  0  0  0  0
   22.2284   35.6509   22.7807 N   0  0  0  0  0  0  0  0  0  0  0  0
   19.0650   35.9083   20.9103 C   0  0  0  0  0  0  0  0  0  0  0  0
   18.3365   37.9193   22.7042 C   0  0  0  0  0  0  0  0  0  0  0  0
   15.4749   38.1093   23.1307 C   0  0  0  0  0  0  0  0  0  0  0  0
   23.0525   34.9948   25.3848 N   0  0  0  0  0  0  0  0  0  0  0  0
   19.6775   37.5156   22.6316 C   0  0  0  0  0  0  0  0  0  0  0  0
   18.5497   34.2117   19.2599 C   0  0  0  0  0  0  0  0  0  0  0  0
   20.6782   38.0647   23.4133 O   0  0  0  0  0  0  0  0  0  0  0  0
   17.7319   36.3398   20.9997 C   0  0  0  0  0  0  0  0  0  0  0  0
   19.4930   34.9141   20.0512 O   0  0  0  0  0  0  0  0  0  0  0  0
   20.3401   38.9887   24.4419 C   0  0  0  0  0  0  0  0  0  0  0  0
   14.1092   38.5833   22.9553 C   0  0  0  0  0  0  0  0  0  0  0  0
   19.2272   33.1227   18.5244 C   0  0  0  0  0  0  0  0  0  0  0  0
   13.0917   37.6566   23.2175 C   0  0  0  0  0  0  0  0  0  0  0  0
   24.5895   37.2462   25.6111 C   0  0  0  0  0  0  0  0  0  0  0  0
   11.8299   38.1255   23.5627 C   0  0  0  0  0  0  0  0  0  0  0  0
   22.7207   38.6480   26.0435 C   0  0  0  0  0  0  0  0  0  0  0  0
   10.7955   37.1963   23.8189 C   0  0  0  0  0  0  0  0  0  0  0  0
   13.2881   36.2883   23.0208 C   0  0  0  0  0  0  0  0  0  0  0  0
    9.4531   37.5423   24.2825 C   0  0  0  0  0  0  0  0  0  0  0  0
   24.7548   35.8747   25.0122 C   0  0  0  0  0  0  0  0  0  0  0  0
   12.2698   35.3825   23.3679 C   0  0  0  0  0  0  0  0  0  0  0  0
   13.9221   39.9356   23.2891 C   0  0  0  0  0  0  0  0  0  0  0  0
   24.2364   34.9641   24.6755 C   0  0  0  0  0  0  0  0  0  0  0  0
   21.1512   38.5895   25.7604 C   0  0  0  0  0  0  0  0  0  0  0  0
   10.9864   35.6551   23.6446 C   0  0  0  0  0  0  0  0  0  0  0  0
    8.6720   36.4129   24.8899 C   0  0  0  0  0  0  0  0  0  0  0  0
   20.3393   32.6870   19.1637 O   0  0  0  0  0  0  0  0  0  0  0  0
    7.4335   36.2006   24.3580 C   0  0  0  0  0  0  0  0  0  0  0  0
    8.5796   36.5410   26.3010 C   0  0  0  0  0  0  0  0  0  0  0  0
  7 13  1  0  0  0  0
 17 20  1  0  0  0  0
  1  2  2  0  0  0  0
  5  7  1  0  0  0  0
  5 12  2  0  0  0  0
  5 18  1  0  0  0  0
 12 15  1  0  0  0  0
 15 17  1  0  0  0  0
  8 15  2  0  0  0  0
  8 11  1  0  0  0  0
  6 10  1  0  0  0  0
  6  8  1  0  0  0  0
  4 10  1  0  0  0  0
  4  9  1  0  0  0  0
  9 14  1  0  0  0  0
  2 14  1  0  0  0  0
  2  3  1  0  0  0  0
 11 19  1  0  0  0  0
 11 18  2  0  0  0  0
 16 19  1  0  0  0  0
 13 21  1  0  0  0  0
 16 22  1  0  0  0  0
 21 23  1  0  0  0  0
  3 24  1  0  0  0  0
 23 25  1  0  0  0  0
  3 26  1  0  0  0  0
 25 27  2  0  0  0  0
 23 28  2  0  0  0  0
 27 29  1  0  0  0  0
 24 30  1  0  0  0  0
 28 31  1  0  0  0  0
 21 32  1  0  0  0  0
 14 33  1  0  0  0  0
 30 33  2  0  0  0  0
 20 34  1  0  0  0  0
 26 34  1  0  0  0  0
 27 35  1  0  0  0  0
 31 35  2  0  0  0  0
 29 36  1  0  0  0  0
 22 37  1  0  0  0  0
 36 38  1  0  0  0  0
 36 39  1  0  0  0  0
M  END
$$$$
